*Heading
** Job name: FEM_Matlab_25 Model name: FEM_Matlab
** Generated by: Abaqus/CAE 2021
*Preprint, echo=NO, model=NO, history=NO, contact=NO
**
** PARTS
**
*Part, name=Part-1
*Node
      1, -0.300000012,  0.300000012,           0.
      2, -0.180000007,  0.300000012,           0.
      3, -0.0600000024,  0.300000012,           0.
      4, 0.0600000024,  0.300000012,           0.
      5,  0.180000007,  0.300000012,           0.
      6,  0.300000012,  0.300000012,           0.
      7, -0.300000012,  0.180000007,           0.
      8, -0.180000007,  0.180000007,           0.
      9, -0.0600000024,  0.180000007,           0.
     10, 0.0600000024,  0.180000007,           0.
     11,  0.180000007,  0.180000007,           0.
     12,  0.300000012,  0.180000007,           0.
     13, -0.300000012, 0.0600000024,           0.
     14, -0.180000007, 0.0600000024,           0.
     15, -0.0600000024, 0.0600000024,           0.
     16, 0.0600000024, 0.0600000024,           0.
     17,  0.180000007, 0.0600000024,           0.
     18,  0.300000012, 0.0600000024,           0.
     19, -0.300000012, -0.0600000024,           0.
     20, -0.180000007, -0.0600000024,           0.
** ... 208 like lines cut
*Element, type=C3D20R
 1,   7,   8,   2,   1,  43,  44,  38,  37,  76,  75,  74,  73,  77,  78,  79,
     80,  82,  81,  83,  84
 2,   8,   9,   3,   2,  44,  45,  39,  38,  87,  86,  85,  75,  88,  89,  90,
     78,  81,  91,  92,  83
 3,   9,  10,   4,   3,  45,  46,  40,  39,  95,  94,  93,  86,  96,  97,  98,
     89,  91,  99, 100,  92
 4,  10,  11,   5,   4,  46,  47,  41,  40, 103, 102, 101,  94, 104, 105, 106,
     97,  99, 107, 108, 100
 5,  11,  12,   6,   5,  47,  48,  42,  41, 111, 110, 109, 102, 112, 113, 114,
    105, 107, 115, 116, 108
 6,  13,  14,   8,   7,  49,  50,  44,  43, 119, 118,  76, 117, 120, 121,  77,
    122, 124, 123,  81,  82
 7,  14,  15,   9,   8,  50,  51,  45,  44, 126, 125,  87, 118, 127, 128,  88,
    121, 123, 129,  91,  81
 8,  15,  16,  10,   9,  51,  52,  46,  45, 131, 130,  95, 125, 132, 133,  96,
    128, 129, 134,  99,  91
 9,  16,  17,  11,  10,  52,  53,  47,  46, 136, 135, 103, 130, 137, 138, 104,
    133, 134, 139, 107,  99
10,  17,  18,  12,  11,  53,  54,  48,  47, 141, 140, 111, 135, 142, 143, 112,
    138, 139, 144, 115, 107
** ... 30 like lines cut
*Nset, nset=Set-1, generate
   1,  228,    1
*Elset, elset=Set-1, generate
  1,  25,   1
** Section: Section-1
*Solid Section, elset=Set-1, material=Material-1
,
*End Part
**  
**
** ASSEMBLY
**
*Assembly, name=Assembly
**  
*Instance, name=Part-1-1, part=Part-1
*End Instance
**  
*Nset, nset=BC, instance=Part-1-1
   1,   7,  13,  19,  25,  31,  37,  43,  49,  55,  61,  67,  73,  80,  82,  84
 117, 122, 124, 145, 150, 152, 173, 178, 180, 201, 206, 208
*Elset, elset=BC, instance=Part-1-1, generate
  1,  21,   5
*Nset, nset=BCx, instance=Part-1-1
  93,  95,  96,  98, 131, 132, 159, 160, 187, 188, 215, 216
*Nset, nset=BCxG, instance=Part-1-1
   1,   7,  13,  19,  25,  31,  37,  43,  49,  55,  61,  67,  73,  80,  82,  84
 117, 122, 124, 145, 150, 152, 173, 178, 180, 201, 206, 208
*Elset, elset=BCxG, instance=Part-1-1, generate
  1,  21,   5
*Nset, nset=BCy, instance=Part-1-1
 145, 146, 149, 150, 153, 156, 158, 161, 163, 166, 168, 171
*Nset, nset=BCyG, instance=Part-1-1
  31,  32,  33,  34,  35,  36,  67,  68,  69,  70,  71,  72, 203, 204, 207, 208
 210, 211, 213, 215, 216, 218, 220, 221, 223, 225, 226, 228
*Elset, elset=BCyG, instance=Part-1-1, generate
 21,  25,   1
*Nset, nset=BCz, instance=Part-1-1
  82,  83,  84,  92, 100, 108, 115, 116, 124, 144, 152, 172, 180, 200, 207, 208
 213, 218, 223, 228
*Nset, nset=BCzG, instance=Part-1-1
   1,   2,   3,   4,   5,   6,   7,  12,  13,  18,  19,  24,  25,  30,  31,  32
  33,  34,  35,  36,  37,  38,  39,  40,  41,  42,  43,  48,  49,  54,  55,  60
  61,  66,  67,  68,  69,  70,  71,  72,  73,  74,  79,  80,  82,  83,  84,  85
  90,  92,  93,  98, 100, 101, 106, 108, 109, 110, 113, 114, 115, 116, 117, 122
 124, 140, 143, 144, 145, 150, 152, 168, 171, 172, 173, 178, 180, 196, 199, 200
 201, 203, 204, 206, 207, 208, 210, 211, 213, 215, 216, 218, 220, 221, 223, 224
 225, 226, 227, 228
*Elset, elset=BCzG, instance=Part-1-1
  1,  2,  3,  4,  5,  6, 10, 11, 15, 16, 20, 21, 22, 23, 24, 25
*Nset, nset=S1, instance=Part-1-1
  37,  38,  39,  40,  41,  42,  43,  44,  45,  46,  47,  48,  49,  50,  51,  52
  53,  54,  55,  56,  57,  58,  59,  60,  61,  62,  63,  64,  65,  66,  67,  68
  69,  70,  71,  72,  77,  78,  79,  80,  88,  89,  90,  96,  97,  98, 104, 105
 106, 112, 113, 114, 120, 121, 122, 127, 128, 132, 133, 137, 138, 142, 143, 148
 149, 150, 155, 156, 160, 161, 165, 166, 170, 171, 176, 177, 178, 183, 184, 188
 189, 193, 194, 198, 199, 204, 205, 206, 211, 212, 216, 217, 221, 222, 226, 227
*Elset, elset=S1, instance=Part-1-1, generate
  1,  25,   1
*Nset, nset=Sa, instance=Part-1-1
   1,   2,   3,   4,   5,   6,  12,  18,  24,  30,  36,  37,  38,  39,  40,  41
  42,  48,  54,  60,  66,  72,  74,  79,  83,  84,  85,  90,  92,  93,  98, 100
 101, 106, 108, 109, 110, 113, 114, 115, 116, 140, 143, 144, 168, 171, 172, 196
 199, 200, 224, 227, 228
*Elset, elset=Sa, instance=Part-1-1
  1,  2,  3,  4,  5, 10, 15, 20, 25
*Nset, nset=Set-9, instance=Part-1-1
 42,
*Nset, nset=Sx, instance=Part-1-1
   1,   6,   7,  12,  13,  18,  19,  24,  25,  30,  31,  36,  37,  42,  43,  48
  49,  54,  55,  60,  61,  66,  67,  72,  73,  80,  82,  84, 110, 113, 115, 116
 117, 122, 124, 140, 143, 144, 145, 150, 152, 168, 171, 172, 173, 178, 180, 196
 199, 200, 201, 206, 208, 224, 227, 228
*Elset, elset=Sx, instance=Part-1-1
  1,  5,  6, 10, 11, 15, 16, 20, 21, 25
*Nset, nset=Sx1, instance=Part-1-1
   6,  12,  18,  24,  30,  36,  42,  48,  54,  60,  66,  72, 110, 113, 115, 116
 140, 143, 144, 168, 171, 172, 196, 199, 200, 224, 227, 228
*Elset, elset=Sx1, instance=Part-1-1, generate
  5,  25,   5
*Nset, nset=Sy, instance=Part-1-1
   1,   2,   3,   4,   5,   6,  31,  32,  33,  34,  35,  36,  37,  38,  39,  40
  41,  42,  67,  68,  69,  70,  71,  72,  74,  79,  83,  84,  85,  90,  92,  93
  98, 100, 101, 106, 108, 109, 114, 116, 203, 204, 207, 208, 210, 211, 213, 215
 216, 218, 220, 221, 223, 225, 226, 228
*Elset, elset=Sy, instance=Part-1-1
  1,  2,  3,  4,  5, 21, 22, 23, 24, 25
*Nset, nset=Sy1, instance=Part-1-1
   1,   2,   3,   4,   5,   6,  37,  38,  39,  40,  41,  42,  74,  79,  83,  84
  85,  90,  92,  93,  98, 100, 101, 106, 108, 109, 114, 116
*Elset, elset=Sy1, instance=Part-1-1, generate
 1,  5,  1
*Elset, elset=_Surf-1_S5, internal, instance=Part-1-1, generate
 1,  5,  1
*Surface, type=ELEMENT, name=Surf-1
_Surf-1_S5, S5
*Elset, elset=_Surf-3_S4, internal, instance=Part-1-1, generate
  5,  25,   5
*Elset, elset=_Surf-3_S6, internal, instance=Part-1-1, generate
  1,  21,   5
*Surface, type=ELEMENT, name=Surf-3
_Surf-3_S4, S4
_Surf-3_S6, S6
*Elset, elset=_Surf-4_S4, internal, instance=Part-1-1, generate
  5,  25,   5
*Elset, elset=_Surf-4_S3, internal, instance=Part-1-1, generate
 21,  25,   1
*Elset, elset=_Surf-4_S6, internal, instance=Part-1-1, generate
  1,  21,   5
*Elset, elset=_Surf-4_S5, internal, instance=Part-1-1, generate
 1,  5,  1
*Surface, type=ELEMENT, name=Surf-4
_Surf-4_S4, S4
_Surf-4_S3, S3
_Surf-4_S6, S6
_Surf-4_S5, S5
*End Assembly
** 
** MATERIALS
** 
*Material, name=Material-1
*Density
2700.,
*Elastic
 1e+11, 0.3
** ----------------------------------------------------------------
** 
** STEP: Step-2
** 
*Step, name=Step-2, nlgeom=NO
*Static
1., 1., 1e-05, 1.
** 
** BOUNDARY CONDITIONS
** 
** Name: BC-4 Type: Displacement/Rotation
*Boundary
BCx, 1, 1
** Name: BC-5 Type: Displacement/Rotation
*Boundary
BCy, 2, 2
** Name: BC-6 Type: Displacement/Rotation
*Boundary
BCz, 3, 3
** 
** LOADS
** 
** Name: Load-4   Type: Pressure
*Dsload
Surf-4, P, -1e+11
** 
** OUTPUT REQUESTS
** 
*Restart, write, frequency=0
** 
** FIELD OUTPUT: F-Output-2
** 
*Output, field, variable=PRESELECT
** 
** HISTORY OUTPUT: H-Output-1
** 
*Output, history, variable=PRESELECT
*End Step
