*Heading
** Job name: IE_Section Model name: IE_Section
** Generated by: Abaqus/CAE 2021
*Preprint, echo=NO, model=NO, history=NO, contact=NO
**
** PARTS
**
*Part, name=All
*Node
      1,           0.,   1.76776695,   1.76776695
      2,           0.,           0.,           0.
      3,           0.,           0.,          2.5
      4,   1.76776695,           0.,   1.76776695
      5,   1.44337571,   1.44337571,   1.44337571
      6,          2.5,           0.,           0.
      7,   1.76776695,   1.76776695,           0.
      8,           0.,          2.5,           0.
      9,   1.76776695,           0.,  -1.76776695
     10,   1.44337571,   1.44337571,  -1.44337571
     11,           0.,           0.,         -2.5
     12,           0.,   1.76776695,  -1.76776695
     13,  -1.76776695,           0.,  -1.76776695
     14,  -1.44337571,   1.44337571,  -1.44337571
     15,         -2.5,           0.,           0.
     16,  -1.76776695,   1.76776695,           0.
     17,  -1.76776695,           0.,   1.76776695
     18,  -1.44337571,   1.44337571,   1.44337571
     19,           0.,   1.17851126,   1.17851126
     20,           0.,  0.589255631,  0.589255631
** ... 565 like lines cut
*Element, type=C3D10
 1,  85,  26,   4,  23,  99,  98,  97, 101, 100, 102
 2,  85,  26,  24,   4,  99, 104, 103,  97,  98, 105
 3,  85,  73,  22,   3, 108, 107, 106, 110, 109, 111
 4,  85,  25,   5,  27, 114, 113, 112, 116, 115, 117
 5,  85,  27,  19,  25, 116, 119, 118, 114, 115, 120
 6,  22,  85,  25,  73, 106, 114, 121, 107, 108, 122
 7,  73,  85,  25,   5, 108, 114, 122, 123, 112, 113
 8,  85,  27,   5,  26, 116, 117, 112,  99, 124, 125
 9,  85,  73,   3,  24, 108, 109, 110, 103, 126, 127
10,  85,  23,  28,  27, 101, 129, 128, 116, 130, 131
11,  28,  19,  21,  85, 134, 133, 132, 128, 118, 135
12,  28,  20,   2,  21, 138, 137, 136, 132, 139, 140
13,  85,  27,  28,  19, 116, 131, 128, 118, 119, 134
14,  85,  23,  24,  21, 101, 141, 103, 135, 142, 143
15,  85,  23,   4,  24, 101, 102,  97, 103, 141, 105
16,  85,  26,  73,  24,  99, 144, 108, 103, 104, 126
17,  85,   3,  22,  21, 110, 111, 106, 135, 145, 146
18,  85,  21,  22,  19, 135, 146, 106, 118, 133, 147
19,  85,  21,  24,   3, 135, 143, 103, 110, 145, 127
20,  19,  22,  85,  25, 147, 106, 118, 120, 121, 114
** ... 310 like lines cut
*End Part
**  
**
** ASSEMBLY
**
*Assembly, name=Assembly
**  
*Instance, name=All-3, part=All
*End Instance
**  
*Nset, nset=S1, instance=All-3
   1,   2,   3,   4,   5,   6,   7,   8,   9,  10,  11,  12,  13,  14,  15,  16
  17,  18,  21,  22,  23,  24,  25,  26,  29,  30,  31,  32,  37,  38,  39,  40
  41,  42,  45,  46,  47,  48,  51,  52,  53,  54,  55,  58,  59,  60,  61,  64
  65,  66,  67,  68,  71,  72,  73,  74,  75,  76,  77,  78,  79,  80,  81,  82
  83,  84,  98, 102, 104, 105, 107, 109, 111, 113, 121, 122, 123, 125, 126, 127
 140, 141, 142, 143, 144, 145, 148, 150, 151, 154, 156, 158, 159, 163, 171, 173
 175, 177, 178, 184, 185, 187, 188, 189, 191, 192, 195, 197, 202, 206, 207, 208
 219, 220, 222, 223, 224, 232, 235, 237, 239, 241, 248, 256, 259, 260, 262, 266
 267, 269, 273, 275, 277, 278, 279, 280, 281, 282, 283, 285, 287, 289, 296, 297
 306, 307, 309, 311, 312, 318, 319, 321, 322, 323, 325, 326, 328, 329, 334, 345
 347, 352, 353, 354, 355, 356, 357, 359, 363, 365, 367, 368, 382, 385, 388, 389
 390, 395, 396, 397, 398, 400, 402, 403, 405, 406, 407, 409, 411, 413, 414, 421
 422, 435, 437, 438, 439, 440, 441, 443, 444, 446, 447, 449, 450, 452, 459, 465
 473, 475, 476, 477, 479, 481, 482, 483, 485, 487, 489, 490, 495, 497, 507, 510
 513, 514, 515, 519, 520, 521, 524, 526, 527, 528, 529, 534, 536, 538, 546, 547
 548, 550, 552, 553, 554, 555, 559, 560, 562, 563, 566, 572, 574, 575, 579, 580
 581, 585
*Elset, elset=S1, instance=All-3
   2,   3,   6,   7,   9,  14,  15,  16,  19,  22,  25,  26,  27,  28,  33,  34
  37,  38,  39,  41,  42,  45,  47,  48,  55,  61,  62,  63,  66,  72,  76,  81
  82,  88,  90,  97,  98, 100, 102, 103, 104, 106, 107, 108, 109, 111, 114, 115
 116, 119, 122, 124, 129, 131, 132, 135, 147, 150, 151, 152, 154, 155, 158, 163
 167, 175, 177, 178, 179, 181, 182, 183, 189, 191, 192, 193, 194, 197, 204, 206
 207, 210, 212, 213, 216, 218, 219, 230, 231, 233, 240, 243, 245, 247, 248, 250
 252, 258, 260, 261, 262, 264, 266, 267, 268, 270, 275, 278, 279, 283, 284, 285
 288, 289, 291, 295, 296, 300, 302, 308, 310, 311, 316, 318, 320, 323, 330
*End Assembly
*Amplitude, name=Amp-1
             0.,              1.,           1000.,              3.
** 
** MATERIALS
** 
*Material, name=Material-1
*Conductivity
 2.25,
*Density
3000.,
*Elastic
 1e+11, 0.3
*Expansion
 7.5e-06,
*Specific Heat
1000.,
** 
** PREDEFINED FIELDS
** 
** Name: Predefined Field-1   Type: Temperature
*Initial Conditions, type=TEMPERATURE
Set-7, 100.
** ----------------------------------------------------------------
** 
** STEP: Step-5
** 
*Step, name=Step-5, nlgeom=NO, perturbation
*Frequency, eigensolver=Lanczos, sim, acoustic coupling=on, normalization=mass
, , 10000., , , 
** 
** BOUNDARY CONDITIONS
** 
** Name: BC-2 Type: Displacement/Rotation
*Boundary
BC_Node_sets, 1, 1
BC_Node_sets, 2, 2
BC_Node_sets, 3, 3
** 
** OUTPUT REQUESTS
** 
*Restart, write, frequency=0
*Output, field
*Node Output
*End Step
